-------------------------------------------------------
          Amber 22 PMEMD                              2022
          -------------------------------------------------------

  [-O]verwriting output

File Assignments:

 Here is the input file:

TI production MD
 &cntrl
  imin = 0,                  ! Molecular dynamics
  irest = 1,                 ! Restart the simulation
  ntx = 5,                   ! Coordinates and velocities will be read from a c
  nstlim = 2500000,           ! Total number of steps
  !numexchg = NUMEXCHG,      ! Total number of exchange attempts
  !gremd_acyc = 1,           ! Odd numbers of replicas are allowed
  dt = 0.002,                   ! Time step for integration in ps
  iwrap = 0,                 ! default value

  ! Potential energy control
  ntb = 1,                   ! Constant volume (default when igb and ntp are bo
  cut = 9.0,                 ! Nonbond interaction truncation
  ntr = 0,                   ! No positional restraints applied
  restraint_wt = 0.0,

  ! Pressure control
  ntp = 0,                   ! No pressure scaling (Default)
  pres0 = 1.0,               ! Reference pressure in bar
  taup = 2.0,                ! Pressure relaxation time in ps
  barostat = 2,              ! Monte Carlo Barostat

  ! SHAKE
  ntc = 2,                   ! Bonds involving hydrogen are constrained
  ntf = 1,                   ! Complete interaction is calculated

  ! Temperature regulation
  ntt = 3,                   ! Langevin dynamics
  gamma_ln = 2.0,            ! Collision frequency in ps^{-1}
  ig = -1,                   ! Seed for the pseudo-random number generator
  tempi = 298.15,             ! Initial temperature
  temp0 = 298.15,             ! Bath temperature

  ! Control options for output
  ioutfm = 1,                ! Binary NetCDF trajectory (Default)
  ntpr = 2500,               ! Print energies to the output file every 2500 ste
  ntwx = 0,               ! Print coordinates to the trjectory every 0 steps

  icfe = 1,                  ! run alchemical transformation
  clambda = 0.4374,         ! lambda
  timask1 = ":1",         ! residue unique to H1
  timask2 = ":2",         ! residue unique to H2
  ifsc = 1,                  ! enable soft-core potentials
  logdvdl = 0,               ! not dump dV/dL values
  scmask1 = ":1@C14,H9,H10,H11",         ! residues with soft-core potential ap
  scmask2 = ":2@C14,H9,C15,H10,H11,H12,C16,H13,H14,H15",         ! residues wit
  scalpha = 0.2,             ! alpha parameter in soft-core potential
  scbeta = 50.0,             ! beta parameter in soft-core potential

  gti_lam_sch = 1,           ! lambda-scheduling is enabled
  gti_ele_sc = 1,            ! smoothstep function is utilized according to the
  gti_vdw_sc = 1,            ! smoothstep function is utilized according to the
  gti_scale_beta = 0,        ! default value
  gti_cut_sc = 0,            ! default value: no tail smoothing to SC
  gti_add_sc = 5,   ! realize an enhanced sampling through alchemical dimension
  tishake = 1,               ! constraints removed
  gti_syn_mass = 0,          ! default value
  gti_output = 0,            ! default value: not output term-by-term detailed
  gti_cut = 1,               ! default value: the non-bond cutoff, defined by c
  gti_chg_keep = 1,          ! default value: the charges of the softcore regio

  ifmbar = 1,                ! Print out energy information for MBAR
  mbar_states = 14,
  mbar_lambda = 0.0, 0.0479, 0.1151, 0.2063, 0.25, 0.3161, 0.37, 0.4374, 0.5626
 /

Note: ig = -1. Setting random seed to   694370 based on wallclock time in
      microseconds.

--------------------------------------------------------------------------------
   1.  RESOURCE   USE:
--------------------------------------------------------------------------------

 getting box info from netcdf restart file
 NATOM  =   32331 NTYPES =      26 NBONH =   29935 MBONA  =    2456
 NTHETH =    5322 MTHETA =    3324 NPHIH =   10780 MPHIA  =   10258
 NHPARM =       0 NPARM  =       0 NNB   =   62936 NRES   =    9493
 NBONA  =    2456 NTHETA =    3324 NPHIA =   10258 NUMBND =      80
 NUMANG =     175 NPTRA  =     208 NATYP =      47 NPHB   =       0
 IFBOX  =       1 NMXRS  =      38 IFCAP =       0 NEXTRA =       0
 NCOPY  =       0

     BOX TYPE: RECTILINEAR

--------------------------------------------------------------------------------
   2.  CONTROL  DATA  FOR  THE  RUN
--------------------------------------------------------------------------------

L1

General flags:
     imin    =       0, nmropt  =       0

Nature and format of input:
     ntx     =       5, irest   =       1, ntrx    =       1

Nature and format of output:
     ntxo    =       2, ntpr    =    2500, ntrx    =       1, ntwr    = 2500000
     iwrap   =       0, ntwx    =       0, ntwv    =       0, ntwe    =       0
     ioutfm  =       1, ntwprt  =       0, idecomp =       0, rbornstat=      0

Potential function:
     ntf     =       1, ntb     =       1, igb     =       0, nsnb    =      25
     ipol    =       0, gbsa    =       0, iesp    =       0
     dielc   =   1.00000, cut     =   9.00000, intdiel =   1.00000

Frozen or restrained atoms:
     ibelly  =       0, ntr     =       0

Molecular dynamics:
     nstlim  =   2500000, nscm    =      1000, nrespa  =         1
     t       =   0.00000, dt      =   0.00200, vlimit  =  -1.00000

Langevin dynamics temperature regulation:
     ig      =  694370
     temp0   = 298.15000, tempi   = 298.15000, gamma_ln=   2.00000

SHAKE:
     ntc     =       2, jfastw  =       0
     tol     =   0.00001

Free energy options:
     icfe    =       1, ifsc    =       1, klambda =       1
     clambda =  0.4374, scalpha =  0.2000, scbeta  = 50.0000
     sceeorder =       2
     dynlmb =  0.0000 logdvdl =       0

FEP MBAR options:
     ifmbar  =       1,  bar_intervall =      100
     mbar_states =      14

Ewald parameters:
     verbose =       0, ew_type =       0, nbflag  =       1, use_pme =       1
     vdwmeth =       1, eedmeth =       1, netfrc  =       1
     Box X =   69.814   Box Y =   69.707   Box Z =   84.139
     Alpha =   90.000   Beta  =   90.000   Gamma =   90.000
     NFFT1 =   72       NFFT2 =   72       NFFT3 =   96
     Cutoff=    9.000   Tol   =0.100E-04
     Ewald Coefficient =  0.30768
     Interpolation order =    4
     TI Mask 1 :1; matches     32 atoms
     TI Mask 2 :2; matches     38 atoms
     TI region 1:   32293 atoms
     TI region 2:   32299 atoms
     SC Mask 1 :1@C14,H9,H10,H11; matches      4 atoms
     SC Mask 2 :2@C14,H9,C15,H10,H11,H12,C16,H13,H14,H15; matches     10 atoms

    MBAR - lambda values considered:
      14 total:  0.0000 0.0479 0.1151 0.2063 0.2500 0.3161 0.3700 0.4374 0.5626 0.6839 0.7937 0.8850 0.9521 1.0000
    Extra energies will be computed  25000 times.

--------------------------------------------------------------------------------
   3.  ATOMIC COORDINATES AND VELOCITIES
--------------------------------------------------------------------------------

L1
 begin time read from input coords =    40.000 ps

 Number of triangulated 3-point waters found:     9199
 Number of shake restraints removed in TI region  1 :        0
 Number of shake restraints removed in TI region  2 :        0

     Sum of charges for TI region  1 =  -0.00100116
     Skip neutralizing charges...

     Sum of charges for TI region  2 =   0.00299984
     Skip neutralizing charges...

--------------------------------------------------------------------------------
   4.  RESULTS
 NSTEP =     2500   TIME(PS) =      45.000  TEMP(K) =   297.12  PRESS =     0.0
 Etot   =    -74633.9096  EKtot   =     19767.5674  EPtot      =    -94401.4770
 BOND   =       846.8600  ANGLE   =      2535.4599  DIHED      =      3667.8351
 1-4 NB =      1077.0858  1-4 EEL =     11666.2969  VDWAALS    =      9812.0691
 EELEC  =   -124007.0838  EHBOND  =         0.0000  RESTRAINT  =         0.0000
 DV/DL  =        19.4702
 ------------------------------------------------------------------------------

      A V E R A G E S   O V E R    1000 S T E P S

 NSTEP =  2500000   TIME(PS) =    5040.000  TEMP(K) =   297.97  PRESS =     0.0
 Etot   =    -74598.7295  EKtot   =     19824.2755  EPtot      =    -94423.0051
 BOND   =       908.1142  ANGLE   =      2506.0570  DIHED      =      3643.0276
 1-4 NB =      1079.5047  1-4 EEL =     11625.7300  VDWAALS    =     10018.3720
 EELEC  =   -124203.8105  EHBOND  =         0.0000  RESTRAINT  =         0.0000
 DV/DL  =        28.5278
 ------------------------------------------------------------------------------

      R M S  F L U C T U A T I O N S

 NSTEP =  2500000   TIME(PS) =    5040.000  TEMP(K) =     1.57  PRESS =     0.0
 Etot   =       195.6483  EKtot   =       104.5559  EPtot      =       161.5729
 BOND   =        24.4694  ANGLE   =        36.2926  DIHED      =        21.8315
 1-4 NB =        13.6709  1-4 EEL =        41.1301  VDWAALS    =       150.5071
 EELEC  =       249.2868  EHBOND  =         0.0000  RESTRAINT  =         0.0000
 DV/DL  =         8.7369
 ------------------------------------------------------------------------------

      A V E R A G E S   O V E R    1000 S T E P S

 NSTEP =  2500000   TIME(PS) =    5040.000  TEMP(K) =   297.97  PRESS =     0.0
 Etot   =    -74594.8327  EKtot   =     19828.1723  EPtot      =    -94423.0051
 BOND   =       908.1142  ANGLE   =      2506.0570  DIHED      =      3643.0276
 1-4 NB =      1079.5047  1-4 EEL =     11625.7300  VDWAALS    =     10018.3720
 EELEC  =   -124203.8105  EHBOND  =         0.0000  RESTRAINT  =         0.0000
 DV/DL  =        28.5278
 ------------------------------------------------------------------------------

      R M S  F L U C T U A T I O N S

 NSTEP =  2500000   TIME(PS) =    5040.000  TEMP(K) =     1.57  PRESS =     0.0
 Etot   =       195.6827  EKtot   =       104.5980  EPtot      =       161.5729
 BOND   =        24.4694  ANGLE   =        36.2926  DIHED      =        21.8315
 1-4 NB =        13.6709  1-4 EEL =        41.1301  VDWAALS    =       150.5071
 EELEC  =       249.2868  EHBOND  =         0.0000  RESTRAINT  =         0.0000
 DV/DL  =         8.7369
 ------------------------------------------------------------------------------

      DV/DL, AVERAGES OVER    1000 STEPS

 NSTEP =  2500000   TIME(PS) =    5040.000  TEMP(K) =     1.57  PRESS =     0.0
 Etot   =         0.0000  EKtot   =         0.0000  EPtot      =        28.5278
 BOND   =         0.0000  ANGLE   =         0.0000  DIHED      =         6.5729
 1-4 NB =         1.5015  1-4 EEL =        58.1175  VDWAALS    =        -5.8493
 EELEC  =       -59.2453  EHBOND  =         0.0000  RESTRAINT  =         0.0000
 DV/DL  =        28.5278
 ------------------------------------------------------------------------------
