-------------------------------------------------------
          Amber 22 PMEMD                              2022
          -------------------------------------------------------

  [-O]verwriting output

File Assignments:

 Here is the input file:

Relax MD
 &cntrl
  imin = 0,                  ! Molecular dynamics
  irest = 1,                 ! Restart the simulation
  ntx = 5,                   ! Coordinates and velocities will be read from a c
  nstlim = 5000000,           ! Total number of steps
  dt = 0.002,                   ! Time step for integration in ps
  iwrap = 1,                 ! default value

  ! Potential energy control
  ntb = 2,                   ! Constant pressure
  cut = 9.0,                 ! Nonbond interaction truncation
  ntr = 0,                   ! No positional restraints applied
  restraint_wt = 0.0,

  ! Pressure control
  ntp = 1,                   ! Isotropic position scaling
  pres0 = 1.0,               ! Reference pressure in bar
  taup = 2.0,                ! Pressure relaxation time in ps
  barostat = 2,              ! Monte Carlo Barostat

  ! SHAKE
  ntc = 2,                   ! Bonds involving hydrogen are constrained
  ntf = 2,                   ! Bond interactions involving H-atoms omitted

  ! Temperature regulation
  ntt = 3,                   ! Langevin dynamics
  gamma_ln = 2.0,            ! Collision frequency in ps^{-1}
  ig = -1,                   ! Seed for the pseudo-random number generator
  tempi = 298.15,             ! Initial temperature
  temp0 = 298.15,             ! Bath temperature

  ! Control options for output
  ioutfm = 1,                ! Binary NetCDF trajectory (Default)
  ntpr = 2500,               ! Print energies to the output file every 2500 ste
  ntwx = 2500,               ! Print coordinates to the trjectory every NTWX st
 /

Note: ig = -1. Setting random seed to   806438 based on wallclock time in
      microseconds.

--------------------------------------------------------------------------------
   1.  RESOURCE   USE:
--------------------------------------------------------------------------------

 getting box info from netcdf restart file
 NATOM  =   10156 NTYPES =      14 NBONH =   10128 MBONA  =      31
 NTHETH =      58 MTHETA =      42 NPHIH =     111 MPHIA  =      79
 NHPARM =       0 NPARM  =       0 NNB   =   13768 NRES   =    3369
 NBONA  =      31 NTHETA =      42 NPHIA =      79 NUMBND =      23
 NUMANG =      44 NPTRA  =      34 NATYP =      16 NPHB   =       0
 IFBOX  =       1 NMXRS  =      52 IFCAP =       0 NEXTRA =       0
 NCOPY  =       0

     BOX TYPE: RECTILINEAR

--------------------------------------------------------------------------------
   2.  CONTROL  DATA  FOR  THE  RUN
--------------------------------------------------------------------------------

MOL

General flags:
     imin    =       0, nmropt  =       0

Nature and format of input:
     ntx     =       5, irest   =       1, ntrx    =       1

Nature and format of output:
     ntxo    =       2, ntpr    =    2500, ntrx    =       1, ntwr    = 5000000
     iwrap   =       1, ntwx    =    2500, ntwv    =       0, ntwe    =       0
     ioutfm  =       1, ntwprt  =       0, idecomp =       0, rbornstat=      0

Potential function:
     ntf     =       2, ntb     =       2, igb     =       0, nsnb    =      25
     ipol    =       0, gbsa    =       0, iesp    =       0
     dielc   =   1.00000, cut     =   9.00000, intdiel =   1.00000

Frozen or restrained atoms:
     ibelly  =       0, ntr     =       0

Molecular dynamics:
     nstlim  =   5000000, nscm    =      1000, nrespa  =         1
     t       =   0.00000, dt      =   0.00200, vlimit  =  -1.00000

Langevin dynamics temperature regulation:
     ig      =  806438
     temp0   = 298.15000, tempi   = 298.15000, gamma_ln=   2.00000

Pressure regulation:
     ntp     =       1
     pres0   =   1.00000, comp    =  44.60000, taup    =   2.00000
     Monte-Carlo Barostat:
     mcbarint  =     100

SHAKE:
     ntc     =       2, jfastw  =       0
     tol     =   0.00001

Ewald parameters:
     verbose =       0, ew_type =       0, nbflag  =       1, use_pme =       1
     vdwmeth =       1, eedmeth =       1, netfrc  =       1
     Box X =   46.432   Box Y =   47.238   Box Z =   46.317
     Alpha =   90.000   Beta  =   90.000   Gamma =   90.000
     NFFT1 =   48       NFFT2 =   48       NFFT3 =   48
     Cutoff=    9.000   Tol   =0.100E-04
     Ewald Coefficient =  0.30768
     Interpolation order =    4

--------------------------------------------------------------------------------
   3.  ATOMIC COORDINATES AND VELOCITIES
--------------------------------------------------------------------------------

MOL
 begin time read from input coords =    40.000 ps

 Number of triangulated 3-point waters found:     3368

     Sum of charges from parm topology file =  -0.00100000
     Forcing neutrality...

--------------------------------------------------------------------------------
   4.  RESULTS
 NSTEP =     2500   TIME(PS) =      45.000  TEMP(K) =   296.41  PRESS =     0.0
 Etot   =    -26402.3678  EKtot   =      5990.3599  EPtot      =    -32392.7276
 BOND   =        12.2374  ANGLE   =        35.8290  DIHED      =        35.7643
 1-4 NB =         5.9399  1-4 EEL =      -242.3696  VDWAALS    =      4941.1030
 EELEC  =    -37181.2315  EHBOND  =         0.0000  RESTRAINT  =         0.0000
 EKCMT  =         0.0000  VIRIAL  =         0.0000  VOLUME     =    103115.3627
                                                    Density    =         0.9834
 ------------------------------------------------------------------------------

      A V E R A G E S   O V E R    2000 S T E P S

 NSTEP =  5000000   TIME(PS) =   10040.000  TEMP(K) =   298.10  PRESS =     0.0
 Etot   =    -26320.9079  EKtot   =      6024.5709  EPtot      =    -32345.4788
 BOND   =        10.3498  ANGLE   =        34.2230  DIHED      =        29.6172
 1-4 NB =         6.0473  1-4 EEL =      -243.3081  VDWAALS    =      4801.5998
 EELEC  =    -36984.0078  EHBOND  =         0.0000  RESTRAINT  =         0.0000
 EKCMT  =         0.0000  VIRIAL  =         0.0000  VOLUME     =    102793.2172
                                                    Density    =         0.9865
 ------------------------------------------------------------------------------

      R M S  F L U C T U A T I O N S

 NSTEP =  5000000   TIME(PS) =   10040.000  TEMP(K) =     3.04  PRESS =     0.0
 Etot   =       108.4432  EKtot   =        61.4432  EPtot      =        89.6203
 BOND   =         2.6555  ANGLE   =         4.0459  DIHED      =         2.7689
 1-4 NB =         1.0842  1-4 EEL =         1.9489  VDWAALS    =        89.8226
 EELEC  =       144.5576  EHBOND  =         0.0000  RESTRAINT  =         0.0000
 EKCMT  =         0.0000  VIRIAL  =         0.0000  VOLUME     =       483.8127
                                                    Density    =         0.0046
 ------------------------------------------------------------------------------
